Version 4
SHEET 1 880 680
SYMBOL voltage -224 -192 R0
SYMATTR InstName V1
SYMBOL res -96 -336 R0
SYMATTR InstName R1
SYMBOL res 144 -352 R0
SYMATTR InstName R2
